Version 4
SHEET 1 1580 680
WIRE 1264 -16 1264 -96
WIRE 32 16 -48 16
WIRE 240 16 32 16
WIRE 432 16 240 16
WIRE 528 32 496 32
WIRE 432 48 128 48
WIRE 272 112 192 112
WIRE 432 128 336 128
WIRE 1264 128 1264 80
WIRE 32 144 -48 144
WIRE 128 144 128 48
WIRE 128 144 32 144
WIRE 192 144 192 112
WIRE 192 144 128 144
WIRE 240 144 240 16
WIRE 272 144 240 144
WIRE 1264 144 1264 128
WIRE 432 208 432 128
WIRE 464 208 432 208
WIRE 32 272 -48 272
WIRE 272 272 32 272
WIRE 432 288 432 208
WIRE 432 288 336 288
WIRE 192 304 192 144
WIRE 272 304 192 304
FLAG -128 144 0
FLAG -304 16 0
FLAG 1264 -256 0
FLAG -128 16 0
FLAG 1264 208 0
FLAG 304 96 Vcc
IOPIN 304 96 In
FLAG 304 256 Vcc
IOPIN 304 256 In
FLAG -304 96 Vcc
IOPIN -304 96 Out
FLAG 304 160 0
FLAG 304 320 0
FLAG -128 272 0
FLAG 464 0 Vcc
IOPIN 464 0 In
FLAG 464 64 0
FLAG 528 32 High
IOPIN 528 32 Out
FLAG 464 208 MID
IOPIN 464 208 Out
FLAG 32 16 Upper
FLAG 32 272 Lower
FLAG 32 144 Input
SYMBOL voltage -304 112 R180
WINDOW 0 24 96 Left 2
WINDOW 3 24 16 Left 2
WINDOW 123 0 0 Left 0
WINDOW 39 0 0 Left 0
SYMATTR InstName V1
SYMATTR Value 3.7
SYMBOL voltage -32 144 R90
WINDOW 0 -32 56 VBottom 2
WINDOW 3 32 56 VTop 2
WINDOW 123 0 0 Left 0
WINDOW 39 0 0 Left 0
SYMATTR InstName V2
SYMATTR Value SINE(1 0.5 1 0 0 1 10)
SYMBOL voltage 1264 -160 R180
WINDOW 0 24 96 Left 2
WINDOW 3 24 16 Left 2
WINDOW 123 0 0 Left 0
WINDOW 39 0 0 Left 0
SYMATTR InstName V3
SYMATTR Value 3.7
SYMBOL Comparators\\LT1017 304 128 R0
SYMATTR InstName U1
SYMBOL voltage -32 16 R90
WINDOW 0 -32 56 VBottom 2
WINDOW 3 32 56 VTop 2
WINDOW 123 0 0 Left 0
WINDOW 39 0 0 Left 0
SYMATTR InstName V4
SYMATTR Value 1.2
SYMBOL res 1248 -192 R0
SYMATTR InstName R5
SYMATTR Value 100
SYMBOL Comparators\\LT1017 304 288 R0
SYMATTR InstName U2
SYMBOL voltage -32 272 R90
WINDOW 0 -32 56 VBottom 2
WINDOW 3 32 56 VTop 2
WINDOW 123 0 0 Left 0
WINDOW 39 0 0 Left 0
SYMATTR InstName V5
SYMATTR Value 0.7
SYMBOL Comparators\\LT1017 464 32 R0
SYMATTR InstName U3
SYMBOL res 1248 112 R0
SYMATTR InstName R4
SYMATTR Value 100
SYMBOL pnp 1200 -16 R0
SYMATTR InstName Q2
TEXT -352 176 Left 2 !.tran 10
TEXT 1344 -128 Left 2 ;High (Close to Wall)
TEXT 456 248 Left 2 ;High (Middle to Wall)
